Sistemas teste e codigos/Codigos Python/Sistemas/3bus_modified.txt
 08/19/93 UW ARCHIVE               1.0   3 Bus Test-System
BUS DATA FOLLOWS                            3 ITEMS
   1 Bus 3     HV  1  1  3 1.000    0.0      0.0      0.0      0.0     0.0     0.0  1.000   999.0  -999.0   0.0    0.0        0
   2 Bus 2     HV  1  1  2 1.000   0.00      0.2      0.0      0.0     0.0     0.0  1.000   999.0  -999.0   0.0    0.0        0
   3 Bus 3     HV  1  1  0 1.000   0.00      0.8      0.6      0.0     0.0     0.0  1.000   999.0  -999.0   0.0    0.0        0
-999 
BRANCH DATA FOLLOWS                         2 ITEMS
   1    3  1  1 1 0  0.05000   0.20000     0.0200     0     0     0    0 0  0.0       0.0 0.0    0.0     0.0    0.0   0.0
   2    3  1  1 1 0  0.05000   0.20000     0.0200     0     0     0    0 0  0.0       0.0 0.0    0.0     0.0    0.0   0.0
-999
END OF DATA
